# AFLOW.org Repositories
# MgOSi/AB3C_oC20_63_a_cf_c-001.ABC params=-1,3.27442996743,2.48086319218,0.077,0.747,0.631,-0.064 SG=63 [ANRL doi: 10.1016/j.commatsci.2017.01.017 (part 1), doi: 10.1016/j.commatsci.2018.10.043 (part 2)]
data_MgOSi
_pd_phase_name AB3C_oC20_63_a_cf_c-001.ABC
_cell_length_a  3.1002929288
_cell_length_b  10.1516920739
_cell_length_c  7.6914026121
_cell_angle_alpha  90.0000000000
_cell_angle_beta  90.0000000000
_cell_angle_gamma  90.0000000000
_symmetry_space_group_name_H-M  'Cmcm'
_symmetry_Int_Tables_Number  63
loop_
 _symmetry_equiv_pos_site_id
 _symmetry_equiv_pos_as_xyz
  1  x,y,z
  2  -x,-y,z+1/2
  3  -x,y,-z+1/2
  4  x,-y,-z
  5  -x,-y,-z
  6  x,y,-z+1/2
  7  x,-y,z+1/2
  8  -x,y,z
  9  x+1/2,y+1/2,z
  10  -x+1/2,-y+1/2,z+1/2
  11  -x+1/2,y+1/2,-z+1/2
  12  x+1/2,-y+1/2,-z
  13  -x+1/2,-y+1/2,-z
  14  x+1/2,y+1/2,-z+1/2
  15  x+1/2,-y+1/2,z+1/2
  16  -x+1/2,y+1/2,z
loop_
 _atom_site_label
 _atom_site_occupancy
 _atom_site_fract_x
 _atom_site_fract_y
 _atom_site_fract_z
 _atom_site_adp_type
 _atom_site_B_iso_or_equiv
 _atom_site_type_symbol
 _atom_site_symmetry_multiplicity
 _atom_site_Wyckoff_label
Mg1 1.0000000000 0.0000000000 0.0000000000 0.0000000000  Biso 1.0 Mg 4 a
O2 1.0000000000 -0.0000000000 0.0770000000 0.2500000000  Biso 1.0 O 4 c
O3 1.0000000000 0.0000000000 0.6310000000 0.9360000000  Biso 1.0 O 8 f
Si4 1.0000000000 0.0000000000 0.7470000000 0.2500000000  Biso 1.0 Si 4 c
